
OS:Version,
  {251fe353-e97a-4d23-8e89-b42f8abf8316}, !- Handle
  2.1.0;                                  !- Version Identifier

OS:Site,
  {5131d4fd-bdc3-4987-b252-b00022eb6fa7}, !- Handle
  Miami Intl Ap_FL_USA,                   !- Name
  25.82,                                  !- Latitude {deg}
  -80.3,                                  !- Longitude {deg}
  -5,                                     !- Time Zone {hr}
  11,                                     !- Elevation {m}
  City;                                   !- Terrain

OS:SimulationControl,
  {7c54e0e2-3b7a-41a7-9307-fe262f4693df}, !- Handle
  Yes,                                    !- Do Zone Sizing Calculation
  Yes,                                    !- Do System Sizing Calculation
  Yes,                                    !- Do Plant Sizing Calculation
  No,                                     !- Run Simulation for Sizing Periods
  Yes,                                    !- Run Simulation for Weather File Run Periods
  0.04,                                   !- Loads Convergence Tolerance Value
  0.2,                                    !- Temperature Convergence Tolerance Value {deltaC}
  FullInteriorAndExterior,                !- Solar Distribution
  25,                                     !- Maximum Number of Warmup Days
  6;                                      !- Minimum Number of Warmup Days

OS:SubSurface,
  {4d770958-e1ac-42ab-ac14-5c96cf821de6}, !- Handle
  Dining_Wall_South_Window,               !- Name
  FixedWindow,                            !- Sub Surface Type
  {61f32e35-d4ec-4ddd-82e3-b3373d9a1365}, !- Construction Name
  {ea2e6ce6-6128-4151-b661-73815c44ea06}, !- Surface Name
  ,                                       !- Outside Boundary Condition Object
  ,                                       !- View Factor to Ground
  ,                                       !- Shading Control Name
  ,                                       !- Frame and Divider Name
  1,                                      !- Multiplier
  ,                                       !- Number of Vertices
  0.508, 0, 1.9817,                       !- X,Y,Z Vertex 1 {m}
  0.508, 0, 1.0671,                       !- X,Y,Z Vertex 2 {m}
  14.735, 0, 1.0671,                      !- X,Y,Z Vertex 3 {m}
  14.735, 0, 1.9817;                      !- X,Y,Z Vertex 4 {m}

OS:Surface,
  {ea2e6ce6-6128-4151-b661-73815c44ea06}, !- Handle
  Dining_Wall_South,                      !- Name
  Wall,                                   !- Surface Type
  ,                                       !- Construction Name
  {227a53df-c60f-4814-9986-7262c5ebf0b0}, !- Space Name
  Outdoors,                               !- Outside Boundary Condition
  ,                                       !- Outside Boundary Condition Object
  SunExposed,                             !- Sun Exposure
  WindExposed,                            !- Wind Exposure
  ,                                       !- View Factor to Ground
  ,                                       !- Number of Vertices
  0, 0, 3.0488,                           !- X,Y,Z Vertex 1 {m}
  0, 0, 0,                                !- X,Y,Z Vertex 2 {m}
  15.2428, 0, 0,                          !- X,Y,Z Vertex 3 {m}
  15.2428, 0, 3.0488;                     !- X,Y,Z Vertex 4 {m}

OS:Space,
  {227a53df-c60f-4814-9986-7262c5ebf0b0}, !- Handle
  Dining,                                 !- Name
  {0a5e752a-9c58-4822-a53c-738c7aa33d80}, !- Space Type Name
  ,                                       !- Default Construction Set Name
  ,                                       !- Default Schedule Set Name
  0,                                      !- Direction of Relative North {deg}
  0,                                      !- X Origin {m}
  0,                                      !- Y Origin {m}
  0,                                      !- Z Origin {m}
  {ced91864-643e-43c4-9751-34063d9124c4}, !- Building Story Name
  {efc97aef-4a5f-4f85-a37d-22e1341f6106}, !- Thermal Zone Name
  Yes,                                    !- Part of Total Floor Area
  ;                                       !- Design Specification Outdoor Air Object Name

OS:Surface,
  {e6173982-c332-4cd4-8e85-d9c6d4cb0930}, !- Handle
  Kitchen_Wall_East,                      !- Name
  Wall,                                   !- Surface Type
  ,                                       !- Construction Name
  {ca5649c5-cc8d-4b71-9941-b893da8ba6a1}, !- Space Name
  Outdoors,                               !- Outside Boundary Condition
  ,                                       !- Outside Boundary Condition Object
  SunExposed,                             !- Sun Exposure
  WindExposed,                            !- Wind Exposure
  ,                                       !- View Factor to Ground
  ,                                       !- Number of Vertices
  15.2428, 7.6214, 3.0488,                !- X,Y,Z Vertex 1 {m}
  15.2428, 7.6214, 0,                     !- X,Y,Z Vertex 2 {m}
  15.2428, 15.2428, 0,                    !- X,Y,Z Vertex 3 {m}
  15.2428, 15.2428, 3.0488;               !- X,Y,Z Vertex 4 {m}

OS:Space,
  {ca5649c5-cc8d-4b71-9941-b893da8ba6a1}, !- Handle
  Kitchen,                                !- Name
  {00430544-5f5f-4a7a-8e7c-67031a50ff88}, !- Space Type Name
  ,                                       !- Default Construction Set Name
  ,                                       !- Default Schedule Set Name
  0,                                      !- Direction of Relative North {deg}
  0,                                      !- X Origin {m}
  0,                                      !- Y Origin {m}
  0,                                      !- Z Origin {m}
  {ced91864-643e-43c4-9751-34063d9124c4}, !- Building Story Name
  {a8742113-c5f1-44bb-84bf-bee68191c7e3}, !- Thermal Zone Name
  Yes;                                    !- Part of Total Floor Area

OS:SubSurface,
  {f744d345-23bf-4a04-a9c7-9534f2277765}, !- Handle
  Dining_Wall_West_Window,                !- Name
  FixedWindow,                            !- Sub Surface Type
  {61f32e35-d4ec-4ddd-82e3-b3373d9a1365}, !- Construction Name
  {ca26efc0-2f1e-498e-99e2-2fc5e3f319dd}, !- Surface Name
  ,                                       !- Outside Boundary Condition Object
  ,                                       !- View Factor to Ground
  ,                                       !- Shading Control Name
  ,                                       !- Frame and Divider Name
  1,                                      !- Multiplier
  ,                                       !- Number of Vertices
  0, 7.3673, 1.9817,                      !- X,Y,Z Vertex 1 {m}
  0, 7.3673, 1.0671,                      !- X,Y,Z Vertex 2 {m}
  0, 0.254, 1.0671,                       !- X,Y,Z Vertex 3 {m}
  0, 0.254, 1.9817;                       !- X,Y,Z Vertex 4 {m}

OS:Surface,
  {ca26efc0-2f1e-498e-99e2-2fc5e3f319dd}, !- Handle
  Dining_Wall_West,                       !- Name
  Wall,                                   !- Surface Type
  ,                                       !- Construction Name
  {227a53df-c60f-4814-9986-7262c5ebf0b0}, !- Space Name
  Outdoors,                               !- Outside Boundary Condition
  ,                                       !- Outside Boundary Condition Object
  SunExposed,                             !- Sun Exposure
  WindExposed,                            !- Wind Exposure
  ,                                       !- View Factor to Ground
  ,                                       !- Number of Vertices
  0, 7.6214, 3.0488,                      !- X,Y,Z Vertex 1 {m}
  0, 7.6214, 0,                           !- X,Y,Z Vertex 2 {m}
  0, 0, 0,                                !- X,Y,Z Vertex 3 {m}
  0, 0, 3.0488;                           !- X,Y,Z Vertex 4 {m}

OS:Surface,
  {7ae35256-3ec9-4852-b5d2-007b50623dbd}, !- Handle
  Kitchen_Floor,                          !- Name
  Floor,                                  !- Surface Type
  ,                                       !- Construction Name
  {ca5649c5-cc8d-4b71-9941-b893da8ba6a1}, !- Space Name
  Ground,                                 !- Outside Boundary Condition
  ,                                       !- Outside Boundary Condition Object
  NoSun,                                  !- Sun Exposure
  NoWind,                                 !- Wind Exposure
  ,                                       !- View Factor to Ground
  ,                                       !- Number of Vertices
  15.2428, 15.2428, 0,                    !- X,Y,Z Vertex 1 {m}
  15.2428, 7.6214, 0,                     !- X,Y,Z Vertex 2 {m}
  0, 7.6214, 0,                           !- X,Y,Z Vertex 3 {m}
  0, 15.2428, 0;                          !- X,Y,Z Vertex 4 {m}

OS:Space,
  {597594ef-5c7d-4f39-88b9-691ef2d8a8eb}, !- Handle
  attic,                                  !- Name
  {36251c6d-b082-48d4-99c1-0a71ed1db333}, !- Space Type Name
  ,                                       !- Default Construction Set Name
  ,                                       !- Default Schedule Set Name
  0,                                      !- Direction of Relative North {deg}
  0,                                      !- X Origin {m}
  0,                                      !- Y Origin {m}
  3.0488,                                 !- Z Origin {m}
  ,                                       !- Building Story Name
  {e6ea796b-4423-43ee-9129-c57c376a37d8}, !- Thermal Zone Name
  No;                                     !- Part of Total Floor Area

OS:Output:Meter,
  {1d217ca0-6d2b-449e-8519-1957dc15f7a4}, !- Handle
  Gas:Facility,                           !- Name
  hourly,                                 !- Reporting Frequency
  True,                                   !- Meter File Only
  False;                                  !- Cumulative

OS:HeatBalanceAlgorithm,
  {e3daa38c-dd95-42be-9f5b-3e83aecfe210}, !- Handle
  ConductionTransferFunction,             !- Algorithm
  200;                                    !- Surface Temperature Upper Limit {C}

OS:Building,
  {2359408b-6252-42dc-81e2-5632894e0032}, !- Handle
  DOE Ref pre-1980-QuickServiceRestaurant-ASHRAE 169-2006-1A created: 2017-12-26 12:16:51 -0700, !- Name
  ,                                       !- Building Sector Type
  0,                                      !- North Axis {deg}
  ,                                       !- Nominal Floor to Floor Height {m}
  ,                                       !- Space Type Name
  {178458fe-2770-4aa1-8c2d-24825d29cd34}, !- Default Construction Set Name
  ,                                       !- Default Schedule Set Name
  ,                                       !- Standards Number of Stories
  ,                                       !- Standards Number of Above Ground Stories
  QuickServiceRestaurant;                 !- Standards Building Type

OS:Output:Meter,
  {78703274-d428-499c-a972-44dc302926ba}, !- Handle
  Electricity:Building,                   !- Name
  hourly,                                 !- Reporting Frequency
  True,                                   !- Meter File Only
  False;                                  !- Cumulative

OS:Surface,
  {23285ff9-2c6a-4cb5-9097-93028196dae1}, !- Handle
  north-roof,                             !- Name
  RoofCeiling,                            !- Surface Type
  ,                                       !- Construction Name
  {597594ef-5c7d-4f39-88b9-691ef2d8a8eb}, !- Space Name
  Outdoors,                               !- Outside Boundary Condition
  ,                                       !- Outside Boundary Condition Object
  SunExposed,                             !- Sun Exposure
  WindExposed,                            !- Wind Exposure
  ,                                       !- View Factor to Ground
  ,                                       !- Number of Vertices
  12.7023, 7.6214, 2.5405,                !- X,Y,Z Vertex 1 {m}
  15.2428, 15.2428, 0,                    !- X,Y,Z Vertex 2 {m}
  0, 15.2428, 0,                          !- X,Y,Z Vertex 3 {m}
  2.5405, 7.6214, 2.5405;                 !- X,Y,Z Vertex 4 {m}

OS:Surface,
  {2636ff31-c556-495c-b12e-5d6feddbc9cf}, !- Handle
  Dining_Wall_North-PPAutoCreateOther,    !- Name
  Wall,                                   !- Surface Type
  ,                                       !- Construction Name
  {ca5649c5-cc8d-4b71-9941-b893da8ba6a1}, !- Space Name
  Surface,                                !- Outside Boundary Condition
  {aeca9f74-baf7-4879-9ec6-6b786bd73254}, !- Outside Boundary Condition Object
  NoSun,                                  !- Sun Exposure
  NoWind,                                 !- Wind Exposure
  ,                                       !- View Factor to Ground
  ,                                       !- Number of Vertices
  0, 7.6214, 3.0488,                      !- X,Y,Z Vertex 1 {m}
  0, 7.6214, 0,                           !- X,Y,Z Vertex 2 {m}
  15.2428, 7.6214, 0,                     !- X,Y,Z Vertex 3 {m}
  15.2428, 7.6214, 3.0488;                !- X,Y,Z Vertex 4 {m}

OS:Surface,
  {a6bad208-b799-49a9-ac94-60afc3e2348c}, !- Handle
  east-roof,                              !- Name
  RoofCeiling,                            !- Surface Type
  ,                                       !- Construction Name
  {597594ef-5c7d-4f39-88b9-691ef2d8a8eb}, !- Space Name
  Outdoors,                               !- Outside Boundary Condition
  ,                                       !- Outside Boundary Condition Object
  SunExposed,                             !- Sun Exposure
  WindExposed,                            !- Wind Exposure
  ,                                       !- View Factor to Ground
  ,                                       !- Number of Vertices
  12.7023, 7.6214, 2.5405,                !- X,Y,Z Vertex 1 {m}
  15.2428, 0, -1.02093692033454e-015,     !- X,Y,Z Vertex 2 {m}
  15.2428, 15.2428, -1.02093692033454e-015; !- X,Y,Z Vertex 3 {m}

OS:Output:Meter,
  {7ae2d07a-e6f7-4bcf-a173-3d401bdd3ba1}, !- Handle
  Electricity:HVAC,                       !- Name
  hourly,                                 !- Reporting Frequency
  True,                                   !- Meter File Only
  False;                                  !- Cumulative

OS:RunPeriod,
  {896020ac-a51c-4d11-8a87-14b4cf75afe0}, !- Handle
  Run Period 1,                           !- Name
  1,                                      !- Begin Month
  1,                                      !- Begin Day of Month
  12,                                     !- End Month
  31,                                     !- End Day of Month
  No,                                     !- Use Weather File Holidays and Special Days
  No,                                     !- Use Weather File Daylight Saving Period
  No,                                     !- Apply Weekend Holiday Rule
  Yes,                                    !- Use Weather File Rain Indicators
  Yes,                                    !- Use Weather File Snow Indicators
  1;                                      !- Number of Times Runperiod to be Repeated

OS:YearDescription,
  {dc61c512-45d1-4989-9433-d7b2d7e72a86}, !- Handle
  ,                                       !- Calendar Year
  Sunday;                                 !- Day of Week for Start Day

OS:Surface,
  {1f56496f-7c9c-4b39-8d4b-bc0ec99baa9c}, !- Handle
  Dining_Floor,                           !- Name
  Floor,                                  !- Surface Type
  ,                                       !- Construction Name
  {227a53df-c60f-4814-9986-7262c5ebf0b0}, !- Space Name
  Ground,                                 !- Outside Boundary Condition
  ,                                       !- Outside Boundary Condition Object
  NoSun,                                  !- Sun Exposure
  NoWind,                                 !- Wind Exposure
  ,                                       !- View Factor to Ground
  ,                                       !- Number of Vertices
  15.2428, 7.6214, 0,                     !- X,Y,Z Vertex 1 {m}
  15.2428, 0, 0,                          !- X,Y,Z Vertex 2 {m}
  0, 0, 0,                                !- X,Y,Z Vertex 3 {m}
  0, 7.6214, 0;                           !- X,Y,Z Vertex 4 {m}

OS:Surface,
  {239e359d-98c3-4ad3-909e-507d9cdc12fd}, !- Handle
  Dining_Ceiling,                         !- Name
  RoofCeiling,                            !- Surface Type
  ,                                       !- Construction Name
  {227a53df-c60f-4814-9986-7262c5ebf0b0}, !- Space Name
  Surface,                                !- Outside Boundary Condition
  {dbb61c21-e373-4c96-b80c-9293e6b4e972}, !- Outside Boundary Condition Object
  NoSun,                                  !- Sun Exposure
  NoWind,                                 !- Wind Exposure
  ,                                       !- View Factor to Ground
  ,                                       !- Number of Vertices
  15.2428, 0, 3.0488,                     !- X,Y,Z Vertex 1 {m}
  15.2428, 7.6214, 3.0488,                !- X,Y,Z Vertex 2 {m}
  0, 7.6214, 3.0488,                      !- X,Y,Z Vertex 3 {m}
  0, 0, 3.0488;                           !- X,Y,Z Vertex 4 {m}

OS:Surface,
  {98c3e342-d789-4d0e-9013-b5820ea58e80}, !- Handle
  Kitchen_Wall_West,                      !- Name
  Wall,                                   !- Surface Type
  ,                                       !- Construction Name
  {ca5649c5-cc8d-4b71-9941-b893da8ba6a1}, !- Space Name
  Outdoors,                               !- Outside Boundary Condition
  ,                                       !- Outside Boundary Condition Object
  SunExposed,                             !- Sun Exposure
  WindExposed,                            !- Wind Exposure
  ,                                       !- View Factor to Ground
  ,                                       !- Number of Vertices
  0, 15.2428, 3.0488,                     !- X,Y,Z Vertex 1 {m}
  0, 15.2428, 0,                          !- X,Y,Z Vertex 2 {m}
  0, 7.6214, 0,                           !- X,Y,Z Vertex 3 {m}
  0, 7.6214, 3.0488;                      !- X,Y,Z Vertex 4 {m}

OS:Surface,
  {95c0bfd9-6c14-4700-b916-3da2bdc3ec3d}, !- Handle
  west-roof,                              !- Name
  RoofCeiling,                            !- Surface Type
  ,                                       !- Construction Name
  {597594ef-5c7d-4f39-88b9-691ef2d8a8eb}, !- Space Name
  Outdoors,                               !- Outside Boundary Condition
  ,                                       !- Outside Boundary Condition Object
  SunExposed,                             !- Sun Exposure
  WindExposed,                            !- Wind Exposure
  ,                                       !- View Factor to Ground
  ,                                       !- Number of Vertices
  2.5405, 7.6214, 2.5405,                 !- X,Y,Z Vertex 1 {m}
  0, 15.2428, 0,                          !- X,Y,Z Vertex 2 {m}
  0, 0, 0;                                !- X,Y,Z Vertex 3 {m}

OS:Output:Meter,
  {8cd39ffc-0617-4655-b1c8-2c94a0ab3309}, !- Handle
  Electricity:Facility,                   !- Name
  hourly,                                 !- Reporting Frequency
  True,                                   !- Meter File Only
  False;                                  !- Cumulative

OS:Timestep,
  {9063a0cc-5920-4b09-9aec-904158ca50a0}, !- Handle
  6;                                      !- Number of Timesteps per Hour

OS:SubSurface,
  {d143d736-245a-42f7-8084-9f92d4c6b4f4}, !- Handle
  Dining_Wall_East_Window,                !- Name
  FixedWindow,                            !- Sub Surface Type
  {61f32e35-d4ec-4ddd-82e3-b3373d9a1365}, !- Construction Name
  {0ce33173-4d99-4659-a3cf-f4e2f4507992}, !- Surface Name
  ,                                       !- Outside Boundary Condition Object
  ,                                       !- View Factor to Ground
  ,                                       !- Shading Control Name
  ,                                       !- Frame and Divider Name
  1,                                      !- Multiplier
  ,                                       !- Number of Vertices
  15.2428, 0.254, 1.9817,                 !- X,Y,Z Vertex 1 {m}
  15.2428, 0.254, 1.0671,                 !- X,Y,Z Vertex 2 {m}
  15.2428, 7.3673, 1.0671,                !- X,Y,Z Vertex 3 {m}
  15.2428, 7.3673, 1.9817;                !- X,Y,Z Vertex 4 {m}

OS:Surface,
  {0ce33173-4d99-4659-a3cf-f4e2f4507992}, !- Handle
  Dining_Wall_East,                       !- Name
  Wall,                                   !- Surface Type
  ,                                       !- Construction Name
  {227a53df-c60f-4814-9986-7262c5ebf0b0}, !- Space Name
  Outdoors,                               !- Outside Boundary Condition
  ,                                       !- Outside Boundary Condition Object
  SunExposed,                             !- Sun Exposure
  WindExposed,                            !- Wind Exposure
  ,                                       !- View Factor to Ground
  ,                                       !- Number of Vertices
  15.2428, 0, 3.0488,                     !- X,Y,Z Vertex 1 {m}
  15.2428, 0, 0,                          !- X,Y,Z Vertex 2 {m}
  15.2428, 7.6214, 0,                     !- X,Y,Z Vertex 3 {m}
  15.2428, 7.6214, 3.0488;                !- X,Y,Z Vertex 4 {m}

OS:Surface,
  {dbb61c21-e373-4c96-b80c-9293e6b4e972}, !- Handle
  attic-floor-dinning,                    !- Name
  Floor,                                  !- Surface Type
  ,                                       !- Construction Name
  {597594ef-5c7d-4f39-88b9-691ef2d8a8eb}, !- Space Name
  Surface,                                !- Outside Boundary Condition
  {239e359d-98c3-4ad3-909e-507d9cdc12fd}, !- Outside Boundary Condition Object
  NoSun,                                  !- Sun Exposure
  NoWind,                                 !- Wind Exposure
  ,                                       !- View Factor to Ground
  ,                                       !- Number of Vertices
  15.2428, 7.6214, 0,                     !- X,Y,Z Vertex 1 {m}
  15.2428, 0, 0,                          !- X,Y,Z Vertex 2 {m}
  0, 0, 0,                                !- X,Y,Z Vertex 3 {m}
  0, 7.6214, 0;                           !- X,Y,Z Vertex 4 {m}

OS:ShadowCalculation,
  {5f7c5ce5-d484-4da4-b18e-8193917ac323}, !- Handle
  30,                                     !- Calculation Frequency
  15000;                                  !- Maximum Figures in Shadow Overlap Calculations

OS:Surface,
  {39f6e2e0-5e68-4d9f-a51b-93c992967b4d}, !- Handle
  Kitchen_Ceiling,                        !- Name
  RoofCeiling,                            !- Surface Type
  ,                                       !- Construction Name
  {ca5649c5-cc8d-4b71-9941-b893da8ba6a1}, !- Space Name
  Surface,                                !- Outside Boundary Condition
  {4586d3be-ec21-4c3f-bdb8-2e7cc621e90a}, !- Outside Boundary Condition Object
  NoSun,                                  !- Sun Exposure
  NoWind,                                 !- Wind Exposure
  ,                                       !- View Factor to Ground
  ,                                       !- Number of Vertices
  15.2428, 7.6214, 3.0488,                !- X,Y,Z Vertex 1 {m}
  15.2428, 15.2428, 3.0488,               !- X,Y,Z Vertex 2 {m}
  0, 15.2428, 3.0488,                     !- X,Y,Z Vertex 3 {m}
  0, 7.6214, 3.0488;                      !- X,Y,Z Vertex 4 {m}

OS:Surface,
  {29502d46-e7f0-4ace-80f2-bf8c5f22399e}, !- Handle
  Kitchen_Wall_North,                     !- Name
  Wall,                                   !- Surface Type
  ,                                       !- Construction Name
  {ca5649c5-cc8d-4b71-9941-b893da8ba6a1}, !- Space Name
  Outdoors,                               !- Outside Boundary Condition
  ,                                       !- Outside Boundary Condition Object
  SunExposed,                             !- Sun Exposure
  WindExposed,                            !- Wind Exposure
  ,                                       !- View Factor to Ground
  ,                                       !- Number of Vertices
  15.2428, 15.2428, 3.0488,               !- X,Y,Z Vertex 1 {m}
  15.2428, 15.2428, 0,                    !- X,Y,Z Vertex 2 {m}
  0, 15.2428, 0,                          !- X,Y,Z Vertex 3 {m}
  0, 15.2428, 3.0488;                     !- X,Y,Z Vertex 4 {m}

OS:Surface,
  {aeca9f74-baf7-4879-9ec6-6b786bd73254}, !- Handle
  Dining_Wall_North,                      !- Name
  Wall,                                   !- Surface Type
  ,                                       !- Construction Name
  {227a53df-c60f-4814-9986-7262c5ebf0b0}, !- Space Name
  Surface,                                !- Outside Boundary Condition
  {2636ff31-c556-495c-b12e-5d6feddbc9cf}, !- Outside Boundary Condition Object
  NoSun,                                  !- Sun Exposure
  NoWind,                                 !- Wind Exposure
  ,                                       !- View Factor to Ground
  ,                                       !- Number of Vertices
  15.2428, 7.6214, 3.0488,                !- X,Y,Z Vertex 1 {m}
  15.2428, 7.6214, 0,                     !- X,Y,Z Vertex 2 {m}
  0, 7.6214, 0,                           !- X,Y,Z Vertex 3 {m}
  0, 7.6214, 3.0488;                      !- X,Y,Z Vertex 4 {m}

OS:Surface,
  {4586d3be-ec21-4c3f-bdb8-2e7cc621e90a}, !- Handle
  attic-floor-kitchen,                    !- Name
  Floor,                                  !- Surface Type
  ,                                       !- Construction Name
  {597594ef-5c7d-4f39-88b9-691ef2d8a8eb}, !- Space Name
  Surface,                                !- Outside Boundary Condition
  {39f6e2e0-5e68-4d9f-a51b-93c992967b4d}, !- Outside Boundary Condition Object
  NoSun,                                  !- Sun Exposure
  NoWind,                                 !- Wind Exposure
  ,                                       !- View Factor to Ground
  ,                                       !- Number of Vertices
  15.2428, 15.2428, 0,                    !- X,Y,Z Vertex 1 {m}
  15.2428, 7.6214, 0,                     !- X,Y,Z Vertex 2 {m}
  0, 7.6214, 0,                           !- X,Y,Z Vertex 3 {m}
  0, 15.2428, 0;                          !- X,Y,Z Vertex 4 {m}

OS:Output:Meter,
  {d2db413f-1af6-4e7f-9109-45d9423b7ea7}, !- Handle
  ElectricityNet:Facility,                !- Name
  hourly,                                 !- Reporting Frequency
  True,                                   !- Meter File Only
  False;                                  !- Cumulative

OS:Surface,
  {75eb92db-8917-4314-8e60-e78636e3d97c}, !- Handle
  south-roof,                             !- Name
  RoofCeiling,                            !- Surface Type
  ,                                       !- Construction Name
  {597594ef-5c7d-4f39-88b9-691ef2d8a8eb}, !- Space Name
  Outdoors,                               !- Outside Boundary Condition
  ,                                       !- Outside Boundary Condition Object
  SunExposed,                             !- Sun Exposure
  WindExposed,                            !- Wind Exposure
  ,                                       !- View Factor to Ground
  ,                                       !- Number of Vertices
  2.5405, 7.6214, 2.5405,                 !- X,Y,Z Vertex 1 {m}
  3.99095441431607e-034, -5.70727828200584e-017, 1.7121610194245e-016, !- X,Y,Z Vertex 2 {m}
  15.2428, -4.64136290711368e-017, 1.39239060264815e-016, !- X,Y,Z Vertex 3 {m}
  12.7023, 7.6214, 2.5405;                !- X,Y,Z Vertex 4 {m}

OS:ConvergenceLimits,
  {5a5a7ade-f107-42d1-a20e-a6392141cf91}, !- Handle
  1,                                      !- Minimum System Timestep {minutes}
  20;                                     !- Maximum HVAC Iterations

OS:Facility,
  {693dbb2e-41ae-48dc-a6f3-a7089dd1c0fe}; !- Handle

OS:SpaceType,
  {0a5e752a-9c58-4822-a53c-738c7aa33d80}, !- Handle
  QuickServiceRestaurant Dining,          !- Name
  ,                                       !- Default Construction Set Name
  {ddc4a62d-c113-4797-82b4-b75847e0d2e0}, !- Default Schedule Set Name
  {81b3bec9-9648-4e75-9d7b-036572719c02}, !- Group Rendering Name
  {17a4011f-968c-4289-a44d-3d5ae892e274}, !- Design Specification Outdoor Air Object Name
  QuickServiceRestaurant,                 !- Standards Building Type
  Dining;                                 !- Standards Space Type

OS:Rendering:Color,
  {ed083f93-0f22-46f5-9bfe-9910b55f18a2}, !- Handle
  Rendering Color 1,                      !- Name
  31,                                     !- Rendering Red Value
  169,                                    !- Rendering Green Value
  34;                                     !- Rendering Blue Value

OS:SpaceType,
  {00430544-5f5f-4a7a-8e7c-67031a50ff88}, !- Handle
  QuickServiceRestaurant Kitchen,         !- Name
  ,                                       !- Default Construction Set Name
  {7839c3b6-596c-48a0-b807-eaa1539c0d8a}, !- Default Schedule Set Name
  {1b8d0464-36a5-4c45-b423-bed51c23499f}, !- Group Rendering Name
  {c3a83fbf-0a65-4aaf-ad0c-e3c406e52bda}, !- Design Specification Outdoor Air Object Name
  QuickServiceRestaurant,                 !- Standards Building Type
  Kitchen;                                !- Standards Space Type

OS:Rendering:Color,
  {f24b398a-d888-4728-94c1-79e5f0b79f88}, !- Handle
  Rendering Color 2,                      !- Name
  78,                                     !- Rendering Red Value
  222,                                    !- Rendering Green Value
  133;                                    !- Rendering Blue Value

OS:SpaceType,
  {36251c6d-b082-48d4-99c1-0a71ed1db333}, !- Handle
  QuickServiceRestaurant Attic,           !- Name
  ,                                       !- Default Construction Set Name
  {fe76b847-4963-4917-be3a-7a83bd53f82a}, !- Default Schedule Set Name
  {bd75c379-942f-4a91-95b9-5a1cd618f540}, !- Group Rendering Name